
Circuit: *

Doing analysis at TEMP = 27.000000 and TNOM = 27.000000


No. of Data Rows : 1
********************************************
Operating point
********************************************
op_TAB
@gib[i] = -2.65517e-04
@id[current] = 1.025904e-03
@r1[i] = -2.53670e-04
@r2[i] = -2.65517e-04
@r3[i] = -1.18476e-05
@r4[i] = 1.220737e-03
@r5[i] = -1.29142e-03
@r6[i] = 9.670671e-04
@r7[i] = 9.670671e-04
v(1) = -7.95657e+00
v(2) = 3.950179e+00
v(3) = -3.64391e-02
v(4) = -4.95541e+00
v(5) = -6.94792e+00
v(6) = -5.78231e-01
v(7) = 2.284139e-01
v(8) = -4.95541e+00
hvc#branch = 5.883728e-05
va#branch = -2.53670e-04
vsource#branch = 9.670671e-04
op_END
ngspice-31 done
